#---------------------------------------------------------------------------
#  CTI file converted from solution object
#---------------------------------------------------------------------------

units(length = "cm", time = "s", quantity = "mol", act_energy = "cal/mol")

ideal_gas(name = "fOTD_new",
     elements = "H O C N",
     species = """ H O2 O OH H2 H2O HO2 H2O2 CO CO2 HCO CH2O C2H3 C2H4 CH3
                   CH4 CH3O C2H6 C2H5 CH2OH H2CC N2 """,
     reactions = "all",
     initial_state = state(temperature = 300, pressure = OneAtm)   )

#---------------------------------------------------------------------------
#  Species data
#---------------------------------------------------------------------------

species(name = "H",
    atoms = "H:1",
    thermo = (
       NASA(   [200.0, 1000.0], [2.500000000e+00, 0.000000000e+00,
                0.000000000e+00, 0.000000000e+00,
                0.000000000e+00, 2.547366000e+04,
                -4.466828500e-01]  ),
       NASA(   [1000.0, 6000.0], [2.500000000e+00, 0.000000000e+00,
                0.000000000e+00, 0.000000000e+00,
                0.000000000e+00, 2.547366000e+04,
                -4.466828500e-01]  )
                ),
    transport = gas_transport(
                geom = "atom",
                diam = 2.05,
                well_depth = 145.0,
                polar = 0.0,
                rot_relax = 0.0)
       )

species(name = "O2",
    atoms = "O:2",
    thermo = (
       NASA(   [200.0, 1000.0], [3.782456360e+00, -2.996734160e-03,
                9.847302010e-06, -9.681295090e-09,
                3.243728370e-12, -1.063943560e+03,
                3.657675730e+00]  ),
       NASA(   [1000.0, 6000.0], [3.660960650e+00, 6.563658110e-04,
                -1.411496270e-07, 2.057979350e-11,
                -1.299134360e-15,
                -1.215977180e+03, 3.415362790e+00]  )
                ),
    transport = gas_transport(
                geom = "linear",
                diam = 3.458,
                well_depth = 107.4,
                polar = 1.6,
                rot_relax = 3.8)
       )

species(name = "O",
    atoms = "O:1",
    thermo = (
       NASA(   [200.0, 1000.0], [3.168267100e+00, -3.279318840e-03,
                6.643063960e-06, -6.128066240e-09,
                2.112659710e-12, 2.912225920e+04,
                2.051933460e+00]  ),
       NASA(   [1000.0, 6000.0], [2.543636970e+00, -2.731624860e-05,
                -4.190295200e-09, 4.954818450e-12,
                -4.795536940e-16, 2.922601200e+04,
                4.922294570e+00]  )
                ),
    transport = gas_transport(
                geom = "atom",
                diam = 2.7500000000000004,
                well_depth = 80.0,
                polar = 0.0,
                rot_relax = 0.0)
       )

species(name = "OH",
    atoms = "H:1, O:1",
    thermo = (
       NASA(   [200.0, 1000.0], [3.991984240e+00, -2.401066550e-03,
                4.616640330e-06, -3.879163060e-09,
                1.363195020e-12, 3.368898360e+03,
                -1.039984770e-01]  ),
       NASA(   [1000.0, 6000.0], [2.838530330e+00, 1.107412890e-03,
                -2.940002090e-07, 4.206987290e-11,
                -2.422898900e-15, 3.697808080e+03,
                5.844946520e+00]  )
                ),
    transport = gas_transport(
                geom = "linear",
                diam = 2.7500000000000004,
                well_depth = 80.0,
                polar = 0.0,
                rot_relax = 0.0)
       )

species(name = "H2",
    atoms = "H:2",
    thermo = (
       NASA(   [200.0, 1000.0], [2.344331120e+00, 7.980520750e-03,
                -1.947815100e-05, 2.015720940e-08,
                -7.376117610e-12,
                -9.179351730e+02, 6.830102380e-01]  ),
       NASA(   [1000.0, 6000.0], [2.932865750e+00, 8.266080260e-04,
                -1.464023640e-07, 1.541004140e-11,
                -6.888048000e-16,
                -8.130655810e+02,
                -1.024328650e+00]  )
                ),
    transport = gas_transport(
                geom = "linear",
                diam = 2.9200000000000004,
                well_depth = 38.0,
                polar = 0.7900000000000001,
                rot_relax = 280.0)
       )

species(name = "H2O",
    atoms = "H:2, O:1",
    thermo = (
       NASA(   [200.0, 1000.0], [4.198635200e+00, -2.036401700e-03,
                6.520341600e-06, -5.487926900e-09,
                1.771968000e-12, -3.029372600e+04,
                -8.490090100e-01]  ),
       NASA(   [1000.0, 6000.0], [2.677038900e+00, 2.973181600e-03,
                -7.737688900e-07, 9.443351400e-11,
                -4.268999100e-15,
                -2.988589400e+04, 6.882550000e+00]  )
                ),
    transport = gas_transport(
                geom = "nonlinear",
                diam = 2.6050000000000004,
                well_depth = 572.4,
                polar = 0.0,
                rot_relax = 4.0,
                dipole= 1.8440005262719967)
       )

species(name = "HO2",
    atoms = "H:1, O:2",
    thermo = (
       NASA(   [200.0, 1000.0], [4.301798070e+00, -4.749120970e-03,
                2.115829050e-05, -2.427639140e-08,
                9.292252250e-12, 2.640184850e+02,
                3.716662200e+00]  ),
       NASA(   [1000.0, 5000.0], [4.172287410e+00, 1.881176270e-03,
                -3.462772860e-07, 1.946575490e-11,
                1.762569050e-16, 3.102068390e+01,
                2.957676720e+00]  )
                ),
    transport = gas_transport(
                geom = "nonlinear",
                diam = 3.458,
                well_depth = 107.4,
                polar = 0.0,
                rot_relax = 1.0)
       )

species(name = "H2O2",
    atoms = "H:2, O:2",
    thermo = (
       NASA(   [200.0, 1000.0], [4.315151490e+00, -8.473906220e-04,
                1.764043230e-05, -2.267629440e-08,
                9.089501580e-12, -1.770674370e+04,
                3.273733190e+00]  ),
       NASA(   [1000.0, 6000.0], [4.579773050e+00, 4.053260030e-03,
                -1.298447300e-06, 1.982114000e-10,
                -1.139687920e-14,
                -1.800717750e+04, 6.649706940e-01]  )
                ),
    transport = gas_transport(
                geom = "nonlinear",
                diam = 3.458,
                well_depth = 107.4,
                polar = 0.0,
                rot_relax = 3.8)
       )

species(name = "CO",
    atoms = "C:1, O:1",
    thermo = (
       NASA(   [200.0, 1000.0], [3.579533500e+00, -6.103536900e-04,
                1.016814300e-06, 9.070058600e-10,
                -9.044244900e-13,
                -1.434408600e+04, 3.508409300e+00]  ),
       NASA(   [1000.0, 6000.0], [3.048485900e+00, 1.351728100e-03,
                -4.857940500e-07, 7.885364400e-11,
                -4.698074600e-15,
                -1.426611700e+04, 6.017097700e+00]  )
                ),
    transport = gas_transport(
                geom = "linear",
                diam = 3.65,
                well_depth = 98.1,
                polar = 1.9500000000000002,
                rot_relax = 1.8)
       )

species(name = "CO2",
    atoms = "C:1, O:2",
    thermo = (
       NASA(   [200.0, 1000.0], [2.356813000e+00, 8.984129900e-03,
                -7.122063200e-06, 2.457300800e-09,
                -1.428854800e-13,
                -4.837197100e+04, 9.900903500e+00]  ),
       NASA(   [1000.0, 6000.0], [4.636511100e+00, 2.741456900e-03,
                -9.958975900e-07, 1.603866600e-10,
                -9.161985700e-15,
                -4.902490400e+04,
                -1.934895500e+00]  )
                ),
    transport = gas_transport(
                geom = "linear",
                diam = 3.763,
                well_depth = 244.0,
                polar = 2.6500000000000004,
                rot_relax = 2.1)
       )

species(name = "HCO",
    atoms = "C:1, H:1, O:1",
    thermo = (
       NASA(   [200.0, 1000.0], [4.237546100e+00, -3.320752570e-03,
                1.400302640e-05, -1.342399950e-08,
                4.374162080e-12, 3.872411850e+03,
                3.308348690e+00]  ),
       NASA(   [1000.0, 6000.0], [3.920015420e+00, 2.522793240e-03,
                -6.710041640e-07, 1.056159480e-10,
                -7.437982610e-15, 3.653429280e+03,
                3.580770560e+00]  )
                ),
    transport = gas_transport(
                geom = "nonlinear",
                diam = 3.59,
                well_depth = 498.00000000000006,
                polar = 0.0,
                rot_relax = 0.0)
       )

species(name = "CH2O",
    atoms = "C:1, H:2, O:1",
    thermo = (
       NASA(   [200.0, 1000.0], [4.793723120e+00, -9.908333220e-03,
                3.732199900e-05, -3.792852370e-08,
                1.317726410e-11, -1.437919530e+04,
                6.027980580e-01]  ),
       NASA(   [1000.0, 6000.0], [3.169526650e+00, 6.193205600e-03,
                -2.250563660e-06, 3.659756600e-10,
                -2.201494580e-14,
                -1.454868310e+04, 6.042078980e+00]  )
                ),
    transport = gas_transport(
                geom = "nonlinear",
                diam = 3.59,
                well_depth = 498.00000000000006,
                polar = 0.0,
                rot_relax = 2.0)
       )

species(name = "C2H3",
    atoms = "C:2, H:3",
    thermo = (
       NASA(   [200.0, 1000.0], [3.363776420e+00, 2.657657220e-04,
                2.796207040e-05, -3.729869420e-08,
                1.515901760e-11, 3.447495890e+04,
                7.915100920e+00]  ),
       NASA(   [1000.0, 6000.0], [4.150267630e+00, 7.540213410e-03,
                -2.629978470e-06, 4.159740480e-10,
                -2.454075090e-14, 3.385663800e+04,
                1.728122350e+00]  )
                ),
    transport = gas_transport(
                geom = "nonlinear",
                diam = 4.1,
                well_depth = 209.0,
                polar = 0.0,
                rot_relax = 1.0)
       )

species(name = "C2H4",
    atoms = "C:2, H:4",
    thermo = (
       NASA(   [200.0, 1000.0], [3.959200630e+00, -7.570513730e-03,
                5.709899930e-05, -6.915883520e-08,
                2.698841900e-11, 5.089775980e+03,
                4.097302130e+00]  ),
       NASA(   [1000.0, 6000.0], [3.991827240e+00, 1.048339080e-02,
                -3.717213420e-06, 5.946283660e-10,
                -3.536303860e-14, 4.268658510e+03,
                -2.690817620e-01]  )
                ),
    transport = gas_transport(
                geom = "nonlinear",
                diam = 3.971,
                well_depth = 280.8,
                polar = 0.0,
                rot_relax = 1.5)
       )

species(name = "CH3",
    atoms = "C:1, H:3",
    thermo = (
       NASA(   [200.0, 1000.0], [3.657179700e+00, 2.126597900e-03,
                5.458388300e-06, -6.618100300e-09,
                2.465707400e-12, 1.642271600e+04,
                1.673535400e+00]  ),
       NASA(   [1000.0, 6000.0], [2.978120600e+00, 5.797852000e-03,
                -1.975580000e-06, 3.072979000e-10,
                -1.791741600e-14, 1.650951300e+04,
                4.722479900e+00]  )
                ),
    transport = gas_transport(
                geom = "linear",
                diam = 3.8,
                well_depth = 144.0,
                polar = 0.0,
                rot_relax = 0.0)
       )

species(name = "CH4",
    atoms = "C:1, H:4",
    thermo = (
       NASA(   [200.0, 1000.0], [5.149114680e+00, -1.366220090e-02,
                4.914539210e-05, -4.842467670e-08,
                1.666034410e-11, -1.024659830e+04,
                -4.638488420e+00]  ),
       NASA(   [1000.0, 6000.0], [1.653262260e+00, 1.002630990e-02,
                -3.316612380e-06, 5.364831380e-10,
                -3.146967580e-14,
                -1.000959360e+04, 9.905062830e+00]  )
                ),
    transport = gas_transport(
                geom = "nonlinear",
                diam = 3.7460000000000004,
                well_depth = 141.4,
                polar = 2.6,
                rot_relax = 13.0)
       )

species(name = "CH3O",
    atoms = "C:1, H:3, O:1",
    thermo = (
       NASA(   [200.0, 1000.0], [3.711805020e+00, -2.804633060e-03,
                3.765509710e-05, -4.730720890e-08,
                1.865884200e-11, 1.295697600e+03,
                6.572408640e+00]  ),
       NASA(   [1000.0, 6000.0], [4.757792380e+00, 7.441424740e-03,
                -2.697051760e-06, 4.380905040e-10,
                -2.635370980e-14, 3.781119400e+02,
                -1.966800280e+00]  )
                ),
    transport = gas_transport(
                geom = "nonlinear",
                diam = 3.6900000000000004,
                well_depth = 417.0,
                polar = 0.0,
                rot_relax = 2.0,
                dipole= 1.7000004851748343)
       )

species(name = "C2H6",
    atoms = "C:2, H:6",
    thermo = (
       NASA(   [200.0, 1000.0], [4.291425720e+00, -5.501549010e-03,
                5.994384580e-05, -7.084664690e-08,
                2.686858360e-11, -1.152220560e+04,
                2.666789940e+00]  ),
       NASA(   [1000.0, 6000.0], [4.046664110e+00, 1.535388020e-02,
                -5.470394850e-06, 8.778265440e-10,
                -5.231675310e-14,
                -1.244734990e+04,
                -9.686983130e-01]  )
                ),
    transport = gas_transport(
                geom = "nonlinear",
                diam = 4.302,
                well_depth = 252.30000000000004,
                polar = 0.0,
                rot_relax = 1.5)
       )

species(name = "C2H5",
    atoms = "C:2, H:5",
    thermo = (
       NASA(   [200.0, 1000.0], [4.241859050e+00, -3.569052350e-03,
                4.826672020e-05, -5.854010090e-08,
                2.258045140e-11, 1.296903440e+04,
                4.447037820e+00]  ),
       NASA(   [1000.0, 6000.0], [4.321956330e+00, 1.239305420e-02,
                -4.396809600e-06, 7.035199170e-10,
                -4.184352390e-14, 1.217594750e+04,
                1.711038090e-01]  )
                ),
    transport = gas_transport(
                geom = "nonlinear",
                diam = 4.302,
                well_depth = 252.30000000000004,
                polar = 0.0,
                rot_relax = 1.5)
       )

species(name = "CH2OH",
    atoms = "C:1, H:3, O:1",
    thermo = (
       NASA(   [200.0, 1000.0], [4.478343670e+00, -1.350703100e-03,
                2.784849800e-05, -3.648690600e-08,
                1.479074500e-11, -3.500728900e+03,
                3.309135000e+00]  ),
       NASA(   [1000.0, 6000.0], [5.093143700e+00, 5.947612600e-03,
                -2.064974600e-06, 3.230081730e-10,
                -1.881259020e-14,
                -4.034096400e+03,
                -1.846914930e+00]  )
                ),
    transport = gas_transport(
                geom = "nonlinear",
                diam = 3.6900000000000004,
                well_depth = 417.0,
                polar = 0.0,
                rot_relax = 2.0,
                dipole= 1.7000004851748343)
       )

species(name = "H2CC",
    atoms = "C:2, H:2",
    thermo = (
       NASA(   [200.0, 1000.0], [3.281549410e+00, 6.976426500e-03,
                -2.385279140e-06,
                -1.210776310e-09, 9.820417340e-13,
                4.831917060e+04, 5.920356860e+00]  ),
       NASA(   [1000.0, 6000.0], [4.278073050e+00, 4.756226260e-03,
                -1.630073780e-06, 2.546226800e-10,
                -1.488600860e-14, 4.801404780e+04,
                6.399786000e-01]  )
                ),
    transport = gas_transport(
                geom = "nonlinear",
                diam = 4.1,
                well_depth = 209.0,
                polar = 0.0,
                rot_relax = 2.5)
       )

species(name = "N2",
    atoms = "N:2",
    thermo = (
       NASA(   [200.0, 1000.0], [3.531005280e+00, -1.236609880e-04,
                -5.029994330e-07, 2.435306120e-09,
                -1.408812350e-12,
                -1.046976280e+03, 2.967470380e+00]  ),
       NASA(   [1000.0, 6000.0], [2.952576370e+00, 1.396900400e-03,
                -4.926316030e-07, 7.860101950e-11,
                -4.607552040e-15,
                -9.239486880e+02, 5.871887620e+00]  )
                ),
    transport = gas_transport(
                geom = "linear",
                diam = 3.621,
                well_depth = 97.53,
                polar = 1.76,
                rot_relax = 4.0)
       )

#---------------------------------------------------------------------------
#  Reactions
#---------------------------------------------------------------------------

#  Reaction 1
reaction( "H + O2 <=> O + OH",  [9.841000e+13, 0.0, 15310.0])

#  Reaction 2
reaction( "H2 + O <=> H + OH",  [3.848000e+12, 0.0, 7950.0],
        options = "duplicate")

#  Reaction 3
reaction( "H2 + O <=> H + OH",  [6.687000e+14, 0.0, 19180.0],
        options = "duplicate")

#  Reaction 4
reaction( "H2 + OH <=> H + H2O",  [2.256000e+08, 1.51, 3437.0])

#  Reaction 5
reaction( "2 OH <=> H2O + O",  [3.161000e+04, 2.42, -1928.0])

#  Reaction 6
three_body_reaction( "H2 + M <=> 2 H + M",  [4.580000e+19, -1.4, 104390.0],
          efficiencies = "C2H6:3.0  CH2O:2.5  CH4:2.0  CO:1.95  CO2:3.83  H2:2.55  H2O:12.02  N2:1.01")

#  Reaction 7
three_body_reaction( "2 O + M <=> O2 + M",  [6.160000e+15, -0.5, 0.0],
          efficiencies = "C2H6:3.0  CH2O:2.5  CH4:2.0  CO:1.9  CO2:3.8  H2:2.5  H2O:12.0")

#  Reaction 8
three_body_reaction( "H + O + M <=> OH + M",  [4.710000e+18, -1.0, 0.0],
          efficiencies = "C2H6:3.0  CH2O:2.5  CH4:2.0  CO:2.52  CO2:5.01  H2:2.5  H2O:15.8  N2:1.32")

#  Reaction 9
three_body_reaction( "H2O + M <=> H + OH + M",  [6.060000e+27, -3.322, 120800.0],
          efficiencies = "C2H6:3.0  CH2O:2.5  CH4:2.0  CO:2.4  CO2:4.67  H2:3.77  H2O:0.0  N2:2.46  O2:1.5")

#  Reaction 10
reaction( "2 H2O <=> H + H2O + OH",  [7.528000e+25, -2.44, 120200.0])

#  Reaction 11
falloff_reaction( "H + O2 (+M) <=> HO2 (+M)",
          kf = [4.565000E+12, 0.44, 0.0],
          kf0 = [6.370000E+20, -1.72, 525.0],
          falloff = Troe(A = 0.5, T3 = 30.0, T1 = 90000.0, T2 = 90000.0),
          efficiencies = "C2H6:3.0  CH2O:2.5  CH4:2.0  CO:1.9  CO2:3.45  H2:1.87  H2O:15.81  N2:0.96  O2:0.75")

#  Reaction 12
reaction( "H + HO2 <=> H2 + O2",  [2.945000e+06, 2.087, -1455.0])

#  Reaction 13
reaction( "H + HO2 <=> 2 OH",  [5.888000e+13, 0.0, 300.0])

#  Reaction 14
reaction( "H + HO2 <=> H2O + O",  [1.632000e+12, 0.0, 0.0])

#  Reaction 15
reaction( "HO2 + O <=> O2 + OH",  [1.609000e+13, 0.0, -445.0])

#  Reaction 16
reaction( "HO2 + OH <=> H2O + O2",  [7.347000e+12, 0.0, -1093.0],
        options = "duplicate")

#  Reaction 17
reaction( "HO2 + OH <=> H2O + O2",  [4.534000e+14, 0.0, 10930.0],
        options = "duplicate")

#  Reaction 18
reaction( "2 HO2 <=> H2O2 + O2",  [1.958000e+11, 0.0, -1409.0],
        options = "duplicate")

#  Reaction 19
reaction( "2 HO2 <=> H2O2 + O2",  [1.111000e+14, 0.0, 11040.0],
        options = "duplicate")

#  Reaction 20
falloff_reaction( "H2O2 (+M) <=> 2 OH (+M)",
          kf = [2.187000E+12, 0.9, 48750.0],
          kf0 = [2.490000E+24, -2.3, 48750.0],
          falloff = Troe(A = 0.58, T3 = 30.0, T1 = 90000.0, T2 = 90000.0),
          efficiencies = "C2H6:3.0  CH2O:2.33  CH4:2.0  CO:2.8  CO2:1.6  H2:3.27  H2O:6.63  H2O2:6.61  N2:1.33  O2:1.2")

#  Reaction 21
reaction( "H + H2O2 <=> H2O + OH",  [2.045000e+13, 0.0, 3970.0])

#  Reaction 22
reaction( "H + H2O2 <=> H2 + HO2",  [5.856000e+13, 0.0, 7950.0])

#  Reaction 23
reaction( "H2O2 + O <=> HO2 + OH",  [8.513000e+06, 2.0, 3970.0])

#  Reaction 24
reaction( "H2O2 + OH <=> H2O + HO2",  [1.565000e+12, 0.0, 318.0],
        options = "duplicate")

#  Reaction 25
reaction( "H2O2 + OH <=> H2O + HO2",  [7.340000e+13, 0.0, 7270.0],
        options = "duplicate")

#  Reaction 26
falloff_reaction( "CO + O (+M) <=> CO2 (+M)",
          kf = [1.880000E+11, 0.0, 2430.0],
          kf0 = [1.400000E+21, -2.1, 5500.0],
          efficiencies = "C2H6:3.0  CH2O:2.5  CH4:2.0  CO:1.9  CO2:3.8  H2:2.5  H2O:12.0")

#  Reaction 27
reaction( "CO + O2 <=> CO2 + O",  [1.533000e+12, 0.0, 47700.0])

#  Reaction 28
reaction( "CO + OH <=> CO2 + H",  [6.187000e+04, 2.053, -356.0],
        options = "duplicate")

#  Reaction 29
reaction( "CO + OH <=> CO2 + H",  [5.017000e+12, -0.664, 332.0],
        options = "duplicate")

#  Reaction 30
reaction( "CO + HO2 <=> CO2 + OH",  [1.570000e+05, 2.18, 17944.0])

#  Reaction 31
three_body_reaction( "HCO + M <=> CO + H + M",  [4.800000e+17, -1.2, 17734.0],
          efficiencies = "C2H6:3.0  CH2O:3.29  CH4:2.6  CO:2.04  CO2:2.0  H2:1.31  H2O:15.31  N2:1.31  O2:1.32")

#  Reaction 32
reaction( "H + HCO <=> CO + H2",  [8.482000e+13, 0.0, 0.0])

#  Reaction 33
reaction( "HCO + O <=> CO + OH",  [3.010000e+13, 0.0, 0.0])

#  Reaction 34
reaction( "HCO + O <=> CO2 + H",  [3.001000e+13, 0.0, 0.0])

#  Reaction 35
reaction( "HCO + OH <=> CO + H2O",  [1.199000e+14, 0.0, 0.0])

#  Reaction 36
reaction( "HCO + O2 <=> CO + HO2",  [7.562000e+10, 0.521, -521.0])

#  Reaction 37
falloff_reaction( "H + HCO (+M) <=> CH2O (+M)",
          kf = [1.913000E+14, -0.033, -142.0],
          kf0 = [4.190000E+34, -5.533, 6128.0],
          falloff = Troe(A = 0.782, T3 = 271.0, T1 = 2755.0, T2 = 6570.0),
          efficiencies = "C2H6:3.0  CH2O:2.84  CH4:2.0  CO:1.5  CO2:2.0  H2O:6.0")

#  Reaction 38
falloff_reaction( "CH2O (+M) <=> CO + H2 (+M)",
          kf = [3.700000E+13, 0.0, 71976.0],
          kf0 = [4.400000E+38, -6.1, 93999.99999999999],
          falloff = Troe(A = 0.932, T3 = 197.00000000000003, T1 = 1540.0, T2 = 10300.0),
          efficiencies = "C2H6:3.0  CH2O:2.5  CH4:2.0  CO:1.5  CO2:2.0  H2O:6.0")

#  Reaction 39
reaction( "CH2O + H <=> H2 + HCO",  [7.149000e+07, 1.9, 2742.0])

#  Reaction 40
reaction( "CH2O + O <=> HCO + OH",  [4.244000e+11, 0.57, 2762.0])

#  Reaction 41
reaction( "CH2O + OH <=> H2O + HCO",  [8.338000e+07, 1.63, -1055.0])

#  Reaction 42
reaction( "CH2O + O2 <=> HCO + HO2",  [3.297000e+05, 2.5, 36460.0])

#  Reaction 43
reaction( "CH2O + HO2 <=> H2O2 + HCO",  [7.111000e+04, 2.5, 10210.0])

#  Reaction 44
reaction( "C2H3 + CH2O <=> C2H4 + HCO",  [5.400000e+03, 2.81, 5862.0])

#  Reaction 45
falloff_reaction( "CH3 + H (+M) <=> CH4 (+M)",
          kf = [1.801000E+14, 0.0, 0.0],
          kf0 = [7.930000E+24, -2.17, 0.0],
          falloff = Troe(A = 0.124, T3 = 1800.9999999999998, T1 = 33.1, T2 = 90000.0),
          efficiencies = "C2H6:3.0  CH2O:2.5  CH4:2.0  CO:0.89  CO2:2.0  H2O:3.42  N2:0.59  O2:0.59")

#  Reaction 46
reaction( "CH3 + O <=> CH2O + H",  [5.722000e+13, 0.0, 0.0])

#  Reaction 47
reaction( "CH3 + O => CO + H + H2",  [2.384000e+13, 0.0, 0.0])

#  Reaction 48
reaction( "CH3 + OH <=> CH2O + H2",  [2.735000e+09, 0.734, -2177.0])

#  Reaction 49
reaction( "CH3 + HO2 <=> CH4 + O2",  [1.269000e+05, 2.228, -3022.0])

#  Reaction 50
reaction( "CH3 + HO2 <=> CH3O + OH",  [8.821000e+12, 0.0, -590.0])

#  Reaction 51
reaction( "CH3 + O2 <=> CH3O + O",  [8.104000e+12, 0.0, 28297.0])

#  Reaction 52
reaction( "CH3 + O2 <=> CH2O + OH",  [9.977000e+01, 2.86, 9768.0])

#  Reaction 53
falloff_reaction( "2 CH3 (+M) <=> C2H6 (+M)",
          kf = [1.844000E+16, -0.97, 620.0],
          kf0 = [1.770000E+50, -9.67, 6220.0],
          falloff = Troe(A = 0.5325, T3 = 151.0, T1 = 1038.0, T2 = 4970.0),
          efficiencies = "C2H6:3.0  CH2O:2.5  CH4:1.99  CO:1.5  CO2:2.0  H2O:6.0  O2:1.0")

#  Reaction 54
reaction( "2 CH3 <=> C2H5 + H",  [7.621000e+12, 0.1, 10600.0])

#  Reaction 55
reaction( "CH3 + HCO <=> CH4 + CO",  [5.300000e+12, 0.0, 0.0])

#  Reaction 56
reaction( "CH2O + CH3 <=> CH4 + HCO",  [3.213000e+01, 3.36, 4310.0])

#  Reaction 57
falloff_reaction( "CH3O (+M) <=> CH2O + H (+M)",
          kf = [1.130000E+10, 1.21, 24075.0],
          kf0 = [6.020000E+16, -0.547, 18024.0],
          falloff = Troe(A = 0.341, T3 = 28.0, T1 = 1000.0, T2 = 2339.0),
          efficiencies = "CH2O:2.5  CH4:2.0  CO:1.5  CO2:2.0  H2:2.0  H2O:6.0")

#  Reaction 58
reaction( "CH3O + H <=> CH2OH + H",  [1.290000e+07, 1.82, -703.0])

#  Reaction 59
reaction( "CH3O + H <=> CH2O + H2",  [3.790000e+13, 0.0, 596.0])

#  Reaction 60
reaction( "CH3O + H <=> CH3 + OH",  [3.880000e+14, -0.264, -26.0])

#  Reaction 61
reaction( "CH3O + O <=> CH2O + OH",  [3.780000e+12, 0.0, 0.0])

#  Reaction 62
reaction( "CH3O + OH <=> CH2O + H2O",  [1.810000e+13, 0.0, 0.0])

#  Reaction 63
reaction( "CH3O + O2 <=> CH2O + HO2",  [6.320000e+10, 0.0, 2603.0])

#  Reaction 64
reaction( "CH3 + CH3O <=> CH2O + CH4",  [2.400000e+13, 0.0, 0.0])

#  Reaction 65
reaction( "CH3O + CO <=> CH3 + CO2",  [6.000000e+12, 0.0, 11000.0])

#  Reaction 66
falloff_reaction( "CH2OH (+M) <=> CH2O + H (+M)",
          kf = [7.370000E+10, 0.811, 39580.00000000001],
          kf0 = [3.010000E+13, 0.184, 17230.0],
          falloff = Troe(A = 0.001, T3 = 50.0, T1 = 600.0, T2 = 2780.0),
          efficiencies = "CH2O:2.5  CH4:2.0  CO:1.5  CO2:2.0  H2:2.0  H2O:5.97")

#  Reaction 67
reaction( "CH2OH + H <=> CH2O + H2",  [2.440000e+13, 0.0, 0.0])

#  Reaction 68
reaction( "CH2OH + H <=> CH3 + OH",  [2.006000e+13, 0.198, -241.0])

#  Reaction 69
reaction( "CH2OH + O <=> CH2O + OH",  [9.030000e+13, 0.0, 0.0])

#  Reaction 70
reaction( "CH2OH + OH <=> CH2O + H2O",  [2.410000e+13, 0.0, 0.0])

#  Reaction 71
reaction( "CH2OH + O2 <=> CH2O + HO2",  [7.298000e+13, 0.0, 3736.0])

#  Reaction 72
reaction( "CH2OH + CH3 <=> CH2O + CH4",  [2.400000e+13, 0.0, 0.0])

#  Reaction 73
reaction( "CH4 + H <=> CH3 + H2",  [4.781000e+05, 2.5, 9588.0])

#  Reaction 74
reaction( "CH4 + O <=> CH3 + OH",  [6.786000e+08, 1.56, 8485.0])

#  Reaction 75
reaction( "CH4 + OH <=> CH3 + H2O",  [9.839000e+05, 2.182, 2446.0])

#  Reaction 76
reaction( "CH4 + HO2 <=> CH3 + H2O2",  [4.778000e+04, 2.5, 21000.0])

#  Reaction 77
reaction( "H2CC + O2 <=> 2 HCO",  [1.124000e+13, 0.0, 0.0])

#  Reaction 78
falloff_reaction( "C2H3 + H (+M) <=> C2H4 (+M)",
          kf = [3.880000E+13, 0.2, 0.0],
          kf0 = [1.400000E+30, -3.86, 3320.0],
          falloff = Troe(A = 0.782, T3 = 207.49999999999997, T1 = 2663.0, T2 = 6095.0),
          efficiencies = "C2H6:3.0  CH2O:2.5  CH4:2.0  CO:1.5  CO2:2.0  H2O:6.0")

#  Reaction 79
reaction( "C2H3 + H <=> H2 + H2CC",  [4.893000e+13, 0.0, 0.0])

#  Reaction 80
reaction( "C2H3 + OH <=> CH3 + HCO",  [6.000000e+12, 0.0, 0.0])

#  Reaction 81
reaction( "C2H3 + O2 <=> CH2O + HCO",  [3.936000e+15, -0.959, 580.0])

#  Reaction 82
falloff_reaction( "C2H4 (+M) <=> H2 + H2CC (+M)",
          kf = [3.985000E+15, 0.0, 87060.0],
          kf0 = [3.710000E+16, 0.0, 67816.0],
          efficiencies = "C2H6:3.0  CH2O:2.5  CH4:2.01  CO:1.5  CO2:2.0  H2O:6.0")

#  Reaction 83
falloff_reaction( "C2H4 + H (+M) <=> C2H5 (+M)",
          kf = [1.232000E+09, 1.463, 1355.0],
          kf0 = [2.900000E+39, -6.642, 5769.0],
          falloff = Troe(A = 1.569, T3 = -9147.0, T1 = 299.0, T2 = 152.4),
          efficiencies = "C2H6:3.0  CH2O:2.5  CH4:2.0  CO:1.5  CO2:2.0  H2O:4.92  N2:0.86")

#  Reaction 84
reaction( "C2H4 + H <=> C2H3 + H2",  [2.201000e+02, 3.62, 11270.0])

#  Reaction 85
reaction( "C2H4 + O <=> CH3 + HCO",  [8.355000e+06, 1.88, 183.0])

#  Reaction 86
reaction( "C2H4 + OH <=> C2H3 + H2O",  [2.144000e+04, 2.745, 2216.0])

#  Reaction 87
reaction( "C2H4 + OH <=> CH2O + CH3",  [1.780000e+05, 1.68, 2060.0])

#  Reaction 88
reaction( "C2H4 + CH3 <=> C2H3 + CH4",  [6.020000e+07, 1.56, 16630.0])

#  Reaction 89
reaction( "C2H4 + O2 <=> C2H3 + HO2",  [7.100000e+13, 0.0, 60010.0])

#  Reaction 90
falloff_reaction( "C2H5 + H (+M) <=> C2H6 (+M)",
          kf = [5.210000E+17, -0.99, 1580.0],
          kf0 = [1.990000E+41, -7.08, 6685.0],
          falloff = Troe(A = 0.842, T3 = 125.0, T1 = 2219.0, T2 = 6882.0),
          efficiencies = "C2H6:3.0  CH2O:2.5  CH4:2.0  CO:1.5  CO2:2.0  H2O:6.0")

#  Reaction 91
reaction( "C2H5 + H <=> C2H4 + H2",  [1.810000e+12, 0.0, 0.0])

#  Reaction 92
reaction( "C2H5 + O <=> CH2O + CH3",  [4.420000e+13, 0.0, 0.0])

#  Reaction 93
reaction( "C2H5 + O <=> C2H4 + OH",  [2.940000e+13, 0.0, 0.0])

#  Reaction 94
reaction( "C2H5 + O2 <=> C2H4 + HO2",  [1.355000e+07, 1.09, -1975.0])

#  Reaction 95
reaction( "C2H5 + CH3 <=> C2H4 + CH4",  [9.000000e+11, 0.0, 0.0])

#  Reaction 96
reaction( "C2H5 + CH2O <=> C2H6 + HCO",  [5.500000e+03, 2.81, 5860.0])

#  Reaction 97
reaction( "C2H6 + H <=> C2H5 + H2",  [1.133000e+08, 1.9, 7530.0])

#  Reaction 98
reaction( "C2H6 + O <=> C2H5 + OH",  [1.763000e+05, 2.8, 5803.0])

#  Reaction 99
reaction( "C2H6 + OH <=> C2H5 + H2O",  [9.463000e+06, 2.0, 994.0])

#  Reaction 100
reaction( "C2H6 + CH3 <=> C2H5 + CH4",  [5.600000e+10, 0.0, 9420.0],
        options = "duplicate")

#  Reaction 101
reaction( "C2H6 + CH3 <=> C2H5 + CH4",  [8.299000e+14, 0.0, 22260.0],
        options = "duplicate")

#  Reaction 102
reaction( "C2H6 + O2 <=> C2H5 + HO2",  [7.290000e+05, 2.5, 49160.0])

#  Reaction 103
reaction( "C2H6 + HO2 <=> C2H5 + H2O2",  [1.100000e+05, 2.5, 16850.0])
