#---------------------------------------------------------------------------
#  CTI file converted from solution object
#---------------------------------------------------------------------------

units(length = "cm", time = "s", quantity = "mol", act_energy = "cal/mol")

ideal_gas(name = "f_OTD_new", 
     elements = "O H C N", 
     species = """ O O2 H OH H2 HO2 H2O2 CH CO CH2 HCO CH2(S) CH3 CH2O CH4
                   CO2 CH2OH CH3O CH3OH C2H2 HCCO C2H3
                   CH2CO C2H4 C2H5 C2H6 H2O N2 C CH2CHO """, 
     reactions = "all", 
     initial_state = state(temperature = 300.0, pressure = OneAtm)   )

#---------------------------------------------------------------------------
#  Species data
#---------------------------------------------------------------------------

species(name = "O",
    atoms = "O:1", 
    thermo = (
       NASA(   [200.0, 1000.0], [3.168267100e+00, -3.279318840e-03,
                6.643063960e-06, -6.128066240e-09,
                2.112659710e-12, 2.912225920e+04,
                2.051933460e+00]  ),
       NASA(   [1000.0, 3500.0], [2.569420780e+00, -8.597411370e-05,
                4.194845890e-08, -1.001777990e-11,
                1.228336910e-15, 2.921757910e+04,
                4.784338640e+00]  )
                ),
    transport = gas_transport(
                geom = "atom",
                diam = 2.7500000000000004, 
                well_depth = 80.0, 
                polar = 0.0, 
                rot_relax = 0.0)
       )

species(name = "O2",
    atoms = "O:2", 
    thermo = (
       NASA(   [200.0, 1000.0], [3.782456360e+00, -2.996734160e-03,
                9.847302010e-06, -9.681295090e-09,
                3.243728370e-12, -1.063943560e+03,
                3.657675730e+00]  ),
       NASA(   [1000.0, 3500.0], [3.282537840e+00, 1.483087540e-03,
                -7.579666690e-07, 2.094705550e-10,
                -2.167177940e-14,
                -1.088457720e+03, 5.453231290e+00]  )
                ),
    transport = gas_transport(
                geom = "linear",
                diam = 3.458, 
                well_depth = 107.4, 
                polar = 1.6, 
                rot_relax = 3.8)
       )

species(name = "H",
    atoms = "H:1", 
    thermo = (
       NASA(   [200.0, 1000.0], [2.500000000e+00, 7.053328190e-13,
                -1.995919640e-15, 2.300816320e-18,
                -9.277323320e-22, 2.547365990e+04,
                -4.466828530e-01]  ),
       NASA(   [1000.0, 3500.0], [2.500000010e+00, -2.308429730e-11,
                1.615619480e-14, -4.735152350e-18,
                4.981973570e-22, 2.547365990e+04,
                -4.466829140e-01]  )
                ),
    transport = gas_transport(
                geom = "atom",
                diam = 2.05, 
                well_depth = 145.0, 
                polar = 0.0, 
                rot_relax = 0.0)
       )

species(name = "OH",
    atoms = "H:1, O:1", 
    thermo = (
       NASA(   [200.0, 1000.0], [3.992015430e+00, -2.401317520e-03,
                4.617938410e-06, -3.881133330e-09,
                1.364114700e-12, 3.615080560e+03,
                -1.039254580e-01]  ),
       NASA(   [1000.0, 3500.0], [3.092887670e+00, 5.484297160e-04,
                1.265052280e-07, -8.794615560e-11,
                1.174123760e-14, 3.858657000e+03,
                4.476696100e+00]  )
                ),
    transport = gas_transport(
                geom = "linear",
                diam = 2.7500000000000004, 
                well_depth = 80.0, 
                polar = 0.0, 
                rot_relax = 0.0)
       )

species(name = "H2",
    atoms = "H:2", 
    thermo = (
       NASA(   [200.0, 1000.0], [2.344331120e+00, 7.980520750e-03,
                -1.947815100e-05, 2.015720940e-08,
                -7.376117610e-12,
                -9.179351730e+02, 6.830102380e-01]  ),
       NASA(   [1000.0, 3500.0], [3.337279200e+00, -4.940247310e-05,
                4.994567780e-07, -1.795663940e-10,
                2.002553760e-14, -9.501589220e+02,
                -3.205023310e+00]  )
                ),
    transport = gas_transport(
                geom = "linear",
                diam = 2.9200000000000004, 
                well_depth = 38.0, 
                polar = 0.7900000000000001, 
                rot_relax = 280.0)
       )

species(name = "HO2",
    atoms = "H:1, O:2", 
    thermo = (
       NASA(   [200.0, 1000.0], [4.301798010e+00, -4.749120510e-03,
                2.115828910e-05, -2.427638940e-08,
                9.292251240e-12, 2.948080400e+02,
                3.716662450e+00]  ),
       NASA(   [1000.0, 3500.0], [4.017210900e+00, 2.239820130e-03,
                -6.336581500e-07, 1.142463700e-10,
                -1.079085350e-14, 1.118567130e+02,
                3.785102150e+00]  )
                ),
    transport = gas_transport(
                geom = "nonlinear",
                diam = 3.458, 
                well_depth = 107.4, 
                polar = 0.0, 
                rot_relax = 1.0)
       )

species(name = "H2O2",
    atoms = "H:2, O:2", 
    thermo = (
       NASA(   [200.0, 1000.0], [4.276112690e+00, -5.428224170e-04,
                1.673357010e-05, -2.157708130e-08,
                8.624543630e-12, -1.770258210e+04,
                3.435050740e+00]  ),
       NASA(   [1000.0, 3500.0], [4.165002850e+00, 4.908316940e-03,
                -1.901392250e-06, 3.711859860e-10,
                -2.879083050e-14,
                -1.786178770e+04, 2.916156620e+00]  )
                ),
    transport = gas_transport(
                geom = "nonlinear",
                diam = 3.458, 
                well_depth = 107.4, 
                polar = 0.0, 
                rot_relax = 3.8)
       )

species(name = "CH",
    atoms = "C:1, H:1", 
    thermo = (
       NASA(   [200.0, 1000.0], [3.489816650e+00, 3.238355410e-04,
                -1.688990650e-06, 3.162173270e-09,
                -1.406090670e-12, 7.079729340e+04,
                2.084011080e+00]  ),
       NASA(   [1000.0, 3500.0], [2.878464730e+00, 9.709136810e-04,
                1.444456550e-07, -1.306878490e-10,
                1.760793830e-14, 7.101243640e+04,
                5.484979990e+00]  )
                ),
    transport = gas_transport(
                geom = "linear",
                diam = 2.7500000000000004, 
                well_depth = 80.0, 
                polar = 0.0, 
                rot_relax = 0.0)
       )

species(name = "CO",
    atoms = "C:1, O:1", 
    thermo = (
       NASA(   [200.0, 1000.0], [3.579533470e+00, -6.103536800e-04,
                1.016814330e-06, 9.070058840e-10,
                -9.044244990e-13,
                -1.434408600e+04, 3.508409280e+00]  ),
       NASA(   [1000.0, 3500.0], [2.715185610e+00, 2.062527430e-03,
                -9.988257710e-07, 2.300530080e-10,
                -2.036477160e-14,
                -1.415187240e+04, 7.818687720e+00]  )
                ),
    transport = gas_transport(
                geom = "linear",
                diam = 3.65, 
                well_depth = 98.1, 
                polar = 1.9500000000000002, 
                rot_relax = 1.8)
       )

species(name = "CH2",
    atoms = "C:1, H:2", 
    thermo = (
       NASA(   [200.0, 1000.0], [3.762678670e+00, 9.688721430e-04,
                2.794898410e-06, -3.850911530e-09,
                1.687417190e-12, 4.600404010e+04,
                1.562531850e+00]  ),
       NASA(   [1000.0, 3500.0], [2.874101130e+00, 3.656392920e-03,
                -1.408945970e-06, 2.601795490e-10,
                -1.877275670e-14, 4.626360400e+04,
                6.171193240e+00]  )
                ),
    transport = gas_transport(
                geom = "linear",
                diam = 3.8, 
                well_depth = 144.0, 
                polar = 0.0, 
                rot_relax = 0.0)
       )

species(name = "HCO",
    atoms = "C:1, H:1, O:1", 
    thermo = (
       NASA(   [200.0, 1000.0], [4.221185840e+00, -3.243925320e-03,
                1.377994460e-05, -1.331440930e-08,
                4.337688650e-12, 3.839564960e+03,
                3.394372430e+00]  ),
       NASA(   [1000.0, 3500.0], [2.772174380e+00, 4.956955260e-03,
                -2.484456130e-06, 5.891617780e-10,
                -5.335087110e-14, 4.011918150e+03,
                9.798344920e+00]  )
                ),
    transport = gas_transport(
                geom = "nonlinear",
                diam = 3.59, 
                well_depth = 498.00000000000006, 
                polar = 0.0, 
                rot_relax = 0.0)
       )

species(name = "CH2(S)",
    atoms = "C:1, H:2", 
    thermo = (
       NASA(   [200.0, 1000.0], [4.198604110e+00, -2.366614190e-03,
                8.232962200e-06, -6.688159810e-09,
                1.943147370e-12, 5.049681630e+04,
                -7.691189670e-01]  ),
       NASA(   [1000.0, 3500.0], [2.292038420e+00, 4.655886370e-03,
                -2.011919470e-06, 4.179060000e-10,
                -3.397163650e-14, 5.092599970e+04,
                8.626501690e+00]  )
                ),
    transport = gas_transport(
                geom = "linear",
                diam = 3.8, 
                well_depth = 144.0, 
                polar = 0.0, 
                rot_relax = 0.0)
       )

species(name = "CH3",
    atoms = "C:1, H:3", 
    thermo = (
       NASA(   [200.0, 1000.0], [3.673590400e+00, 2.010951750e-03,
                5.730218560e-06, -6.871174250e-09,
                2.543857340e-12, 1.644499880e+04,
                1.604564330e+00]  ),
       NASA(   [1000.0, 3500.0], [2.285717720e+00, 7.239900370e-03,
                -2.987143480e-06, 5.956846440e-10,
                -4.671543940e-14, 1.677558430e+04,
                8.480071790e+00]  )
                ),
    transport = gas_transport(
                geom = "linear",
                diam = 3.8, 
                well_depth = 144.0, 
                polar = 0.0, 
                rot_relax = 0.0)
       )

species(name = "CH2O",
    atoms = "C:1, H:2, O:1", 
    thermo = (
       NASA(   [200.0, 1000.0], [4.793723150e+00, -9.908333690e-03,
                3.732200080e-05, -3.792852610e-08,
                1.317726520e-11, -1.430895670e+04,
                6.028129000e-01]  ),
       NASA(   [1000.0, 3500.0], [1.760690080e+00, 9.200000820e-03,
                -4.422588130e-06, 1.006412120e-09,
                -8.838556400e-14,
                -1.399583230e+04, 1.365632300e+01]  )
                ),
    transport = gas_transport(
                geom = "nonlinear",
                diam = 3.59, 
                well_depth = 498.00000000000006, 
                polar = 0.0, 
                rot_relax = 2.0)
       )

species(name = "CH4",
    atoms = "C:1, H:4", 
    thermo = (
       NASA(   [200.0, 1000.0], [5.149876130e+00, -1.367097880e-02,
                4.918005990e-05, -4.847430260e-08,
                1.666939560e-11, -1.024664760e+04,
                -4.641303760e+00]  ),
       NASA(   [1000.0, 3500.0], [7.485149500e-02, 1.339094670e-02,
                -5.732858090e-06, 1.222925350e-09,
                -1.018152300e-13,
                -9.468344590e+03, 1.843731800e+01]  )
                ),
    transport = gas_transport(
                geom = "nonlinear",
                diam = 3.7460000000000004, 
                well_depth = 141.4, 
                polar = 2.6, 
                rot_relax = 13.0)
       )

species(name = "CO2",
    atoms = "C:1, O:2", 
    thermo = (
       NASA(   [200.0, 1000.0], [2.356773520e+00, 8.984596770e-03,
                -7.123562690e-06, 2.459190220e-09,
                -1.436995480e-13,
                -4.837196970e+04, 9.901052220e+00]  ),
       NASA(   [1000.0, 3500.0], [3.857460290e+00, 4.414370260e-03,
                -2.214814040e-06, 5.234901880e-10,
                -4.720841640e-14,
                -4.875916600e+04, 2.271638060e+00]  )
                ),
    transport = gas_transport(
                geom = "linear",
                diam = 3.763, 
                well_depth = 244.0, 
                polar = 2.6500000000000004, 
                rot_relax = 2.1)
       )

species(name = "CH2OH",
    atoms = "C:1, H:3, O:1", 
    thermo = (
       NASA(   [200.0, 1000.0], [3.863889180e+00, 5.596723040e-03,
                5.932717910e-06, -1.045320120e-08,
                4.369672780e-12, -3.193913670e+03,
                5.473022430e+00]  ),
       NASA(   [1000.0, 3500.0], [3.692665690e+00, 8.645767970e-03,
                -3.751011200e-06, 7.872346360e-10,
                -6.485542010e-14,
                -3.242506270e+03, 5.810432150e+00]  )
                ),
    transport = gas_transport(
                geom = "nonlinear",
                diam = 3.6900000000000004, 
                well_depth = 417.0, 
                polar = 0.0, 
                rot_relax = 2.0, 
                dipole= 1.7000004851748343)
       )

species(name = "CH3O",
    atoms = "C:1, H:3, O:1", 
    thermo = (
       NASA(   [300.0, 1000.0], [2.106204000e+00, 7.216595000e-03,
                5.338472000e-06, -7.377636000e-09,
                2.075610000e-12, 9.786011000e+02,
                1.315217700e+01]  ),
       NASA(   [1000.0, 3000.0], [3.770799000e+00, 7.871497000e-03,
                -2.656384000e-06, 3.944431000e-10,
                -2.112616000e-14, 1.278325200e+02,
                2.929575000e+00]  )
                ),
    transport = gas_transport(
                geom = "nonlinear",
                diam = 3.6900000000000004, 
                well_depth = 417.0, 
                polar = 0.0, 
                rot_relax = 2.0, 
                dipole= 1.7000004851748343)
       )

species(name = "CH3OH",
    atoms = "C:1, H:4, O:1", 
    thermo = (
       NASA(   [200.0, 1000.0], [5.715395820e+00, -1.523091290e-02,
                6.524411550e-05, -7.108068890e-08,
                2.613526980e-11, -2.564276560e+04,
                -1.504098230e+00]  ),
       NASA(   [1000.0, 3500.0], [1.789707910e+00, 1.409382920e-02,
                -6.365008350e-06, 1.381710850e-09,
                -1.170602200e-13,
                -2.537487470e+04, 1.450236230e+01]  )
                ),
    transport = gas_transport(
                geom = "nonlinear",
                diam = 3.6260000000000003, 
                well_depth = 481.8, 
                polar = 0.0, 
                rot_relax = 1.0)
       )

species(name = "C2H2",
    atoms = "C:2, H:2", 
    thermo = (
       NASA(   [200.0, 1000.0], [8.086810940e-01, 2.336156290e-02,
                -3.551718150e-05, 2.801524370e-08,
                -8.500729740e-12, 2.642898070e+04,
                1.393970510e+01]  ),
       NASA(   [1000.0, 3500.0], [4.147569640e+00, 5.961666640e-03,
                -2.372948520e-06, 4.674121710e-10,
                -3.612352130e-14, 2.593599920e+04,
                -1.230281210e+00]  )
                ),
    transport = gas_transport(
                geom = "linear",
                diam = 4.1, 
                well_depth = 209.0, 
                polar = 0.0, 
                rot_relax = 2.5)
       )

species(name = "HCCO",
    atoms = "C:2, H:1, O:1", 
    thermo = (
       NASA(   [300.0, 1000.0], [2.251721400e+00, 1.765502100e-02,
                -2.372910100e-05, 1.727575900e-08,
                -5.066481100e-12, 2.005944900e+04,
                1.249041700e+01]  ),
       NASA(   [1000.0, 4000.0], [5.628205800e+00, 4.085340100e-03,
                -1.593454700e-06, 2.862605200e-10,
                -1.940783200e-14, 1.932721500e+04,
                -3.930259500e+00]  )
                ),
    transport = gas_transport(
                geom = "nonlinear",
                diam = 2.5, 
                well_depth = 150.0, 
                polar = 0.0, 
                rot_relax = 1.0)
       )

species(name = "C2H3",
    atoms = "C:2, H:3", 
    thermo = (
       NASA(   [200.0, 1000.0], [3.212466450e+00, 1.514791620e-03,
                2.592094120e-05, -3.576578470e-08,
                1.471508730e-11, 3.485984680e+04,
                8.510540250e+00]  ),
       NASA(   [1000.0, 3500.0], [3.016724000e+00, 1.033022920e-02,
                -4.680823490e-06, 1.017632880e-09,
                -8.626070410e-14, 3.461287390e+04,
                7.787323780e+00]  )
                ),
    transport = gas_transport(
                geom = "nonlinear",
                diam = 4.1, 
                well_depth = 209.0, 
                polar = 0.0, 
                rot_relax = 1.0)
       )

species(name = "CH2CO",
    atoms = "C:2, H:2, O:1", 
    thermo = (
       NASA(   [200.0, 1000.0], [2.135836300e+00, 1.811887210e-02,
                -1.739474740e-05, 9.343975680e-09,
                -2.014576150e-12,
                -7.042918040e+03, 1.221564800e+01]  ),
       NASA(   [1000.0, 3500.0], [4.511297320e+00, 9.003597450e-03,
                -4.169396350e-06, 9.233458820e-10,
                -7.948382010e-14,
                -7.551053110e+03, 6.322472050e-01]  )
                ),
    transport = gas_transport(
                geom = "nonlinear",
                diam = 3.97, 
                well_depth = 436.0, 
                polar = 0.0, 
                rot_relax = 2.0)
       )

species(name = "C2H4",
    atoms = "C:2, H:4", 
    thermo = (
       NASA(   [200.0, 1000.0], [3.959201480e+00, -7.570522470e-03,
                5.709902920e-05, -6.915887530e-08,
                2.698843730e-11, 5.089775930e+03,
                4.097330960e+00]  ),
       NASA(   [1000.0, 3500.0], [2.036111160e+00, 1.464541510e-02,
                -6.710779150e-06, 1.472229230e-09,
                -1.257060610e-13, 4.939886140e+03,
                1.030536930e+01]  )
                ),
    transport = gas_transport(
                geom = "nonlinear",
                diam = 3.971, 
                well_depth = 280.8, 
                polar = 0.0, 
                rot_relax = 1.5)
       )

species(name = "C2H5",
    atoms = "C:2, H:5", 
    thermo = (
       NASA(   [200.0, 1000.0], [4.306465680e+00, -4.186588920e-03,
                4.971428070e-05, -5.991266060e-08,
                2.305090040e-11, 1.284162650e+04,
                4.707209240e+00]  ),
       NASA(   [1000.0, 3500.0], [1.954656420e+00, 1.739727220e-02,
                -7.982066680e-06, 1.752176890e-09,
                -1.496415760e-13, 1.285752000e+04,
                1.346243430e+01]  )
                ),
    transport = gas_transport(
                geom = "nonlinear",
                diam = 4.302, 
                well_depth = 252.30000000000004, 
                polar = 0.0, 
                rot_relax = 1.5)
       )

species(name = "C2H6",
    atoms = "C:2, H:6", 
    thermo = (
       NASA(   [200.0, 1000.0], [4.291424920e+00, -5.501542700e-03,
                5.994382880e-05, -7.084662850e-08,
                2.686857710e-11, -1.152220550e+04,
                2.666823160e+00]  ),
       NASA(   [1000.0, 3500.0], [1.071881500e+00, 2.168526770e-02,
                -1.002560670e-05, 2.214120010e-09,
                -1.900028900e-13,
                -1.142639320e+04, 1.511561070e+01]  )
                ),
    transport = gas_transport(
                geom = "nonlinear",
                diam = 4.302, 
                well_depth = 252.30000000000004, 
                polar = 0.0, 
                rot_relax = 1.5)
       )

species(name = "H2O",
    atoms = "H:2, O:1", 
    thermo = (
       NASA(   [200.0, 1000.0], [4.198640560e+00, -2.036434100e-03,
                6.520402110e-06, -5.487970620e-09,
                1.771978170e-12, -3.029372670e+04,
                -8.490322080e-01]  ),
       NASA(   [1000.0, 3500.0], [3.033992490e+00, 2.176918040e-03,
                -1.640725180e-07,
                -9.704198700e-11, 1.682009920e-14,
                -3.000429710e+04, 4.966770100e+00]  )
                ),
    transport = gas_transport(
                geom = "nonlinear",
                diam = 2.6050000000000004, 
                well_depth = 572.4, 
                polar = 0.0, 
                rot_relax = 4.0, 
                dipole= 1.8440005262719967)
       )

species(name = "N2",
    atoms = "N:2", 
    thermo = (
       NASA(   [300.0, 1000.0], [3.298677000e+00, 1.408240400e-03,
                -3.963222000e-06, 5.641515000e-09,
                -2.444854000e-12,
                -1.020899900e+03, 3.950372000e+00]  ),
       NASA(   [1000.0, 5000.0], [2.926640000e+00, 1.487976800e-03,
                -5.684760000e-07, 1.009703800e-10,
                -6.753351000e-15,
                -9.227977000e+02, 5.980528000e+00]  )
                ),
    transport = gas_transport(
                geom = "linear",
                diam = 3.621, 
                well_depth = 97.53, 
                polar = 1.76, 
                rot_relax = 4.0)
       )

species(name = "C",
    atoms = "C:1", 
    thermo = (
       NASA(   [200.0, 1000.0], [2.554239550e+00, -3.215377240e-04,
                7.337922450e-07, -7.322348890e-10,
                2.665214460e-13, 8.544388320e+04,
                4.531308480e+00]  ),
       NASA(   [1000.0, 3500.0], [2.492668880e+00, 4.798892840e-05,
                -7.243350200e-08, 3.742910290e-11,
                -4.872778930e-15, 8.545129530e+04,
                4.801503730e+00]  )
                ),
    transport = gas_transport(
                geom = "atom",
                diam = 3.2980000000000005, 
                well_depth = 71.4, 
                polar = 0.0, 
                rot_relax = 0.0)
       )

species(name = "CH2CHO",
    atoms = "C:2, H:3, O:1", 
    thermo = (
       NASA(   [300.0, 1000.0], [3.409062000e+00, 1.073857400e-02,
                1.891492000e-06, -7.158583000e-09,
                2.867385000e-12, 1.521476600e+03,
                9.558290000e+00]  ),
       NASA(   [1000.0, 5000.0], [5.975670000e+00, 8.130591000e-03,
                -2.743624000e-06, 4.070304000e-10,
                -2.176017000e-14, 4.903218000e+02,
                -5.045251000e+00]  )
                ),
    transport = gas_transport(
                geom = "nonlinear",
                diam = 3.97, 
                well_depth = 436.0, 
                polar = 0.0, 
                rot_relax = 2.0)
       )

#---------------------------------------------------------------------------
#  Reactions
#---------------------------------------------------------------------------

#  Reaction 1
three_body_reaction( "2 O + M => O2 + M",  [1.200000e+17, -1.0, 0.0],
          efficiencies = "C2H6:3.0  CH4:2.0  CO:1.75  CO2:3.6  H2:2.4  H2O:15.4")

#  Reaction 2
three_body_reaction( "O2 + M => 2 O + M",  [1.128000e+20, -1.4395, 119759.95],
          efficiencies = "C2H6:3.0  CH4:2.0  CO:1.75  CO2:3.6  H2:2.4  H2O:15.4")

#  Reaction 3
three_body_reaction( "H + O + M => OH + M",  [5.000000e+17, -1.0, 0.0],
          efficiencies = "C2H6:3.0  CH4:2.0  CO:1.5  CO2:2.0  H2:2.0  H2O:6.0")

#  Reaction 4
three_body_reaction( "OH + M => H + O + M",  [1.234000e+18, -1.0363, 102505.32],
          efficiencies = "C2H6:3.0  CH4:2.0  CO:1.5  CO2:2.0  H2:2.0  H2O:6.0")

#  Reaction 5
reaction( "H2 + O => H + OH",  [3.870000e+04, 2.7, 6260.0])

#  Reaction 6
reaction( "H + OH => H2 + O",  [2.905000e+04, 2.6363, 4443.17])

#  Reaction 7
reaction( "HO2 + O => O2 + OH",  [2.000000e+13, 0.0, 0.0])

#  Reaction 8
reaction( "O2 + OH => HO2 + O",  [7.223000e+11, 0.4474, 52407.91])

#  Reaction 9
reaction( "H2O2 + O => HO2 + OH",  [9.630000e+06, 2.0, 4000.0])

#  Reaction 10
reaction( "HO2 + OH => H2O2 + O",  [2.004000e+04, 2.569, 18113.58])

#  Reaction 11
reaction( "CH + O => CO + H",  [5.700000e+13, 0.0, 0.0])

#  Reaction 12
reaction( "CO + H => CH + O",  [6.977000e+14, 0.1577, 176148.45])

#  Reaction 13
reaction( "CH2 + O => H + HCO",  [8.000000e+13, 0.0, 0.0])

#  Reaction 14
reaction( "H + HCO => CH2 + O",  [6.415000e+15, -0.3223, 91542.93])

#  Reaction 15
reaction( "CH2(S) + O => CO + H2",  [1.500000e+13, 0.0, 0.0])

#  Reaction 16
reaction( "CO + H2 => CH2(S) + O",  [9.616000e+12, 0.3702, 187842.89])

#  Reaction 17
reaction( "CH2(S) + O => H + HCO",  [1.500000e+13, 0.0, 0.0])

#  Reaction 18
reaction( "H + HCO => CH2(S) + O",  [4.629000e+14, -0.3061, 100267.81])

#  Reaction 19
reaction( "CH3 + O => CH2O + H",  [5.060000e+13, 0.0, 0.0])

#  Reaction 20
reaction( "CH2O + H => CH3 + O",  [9.265000e+15, -0.3162, 69116.56])

#  Reaction 21
reaction( "CH4 + O => CH3 + OH",  [1.020000e+09, 1.5, 8600.0])

#  Reaction 22
reaction( "CH3 + OH => CH4 + O",  [3.014000e+02, 2.8402, 2410.68])

#  Reaction 23
falloff_reaction( "CO + O (+M) => CO2 (+M)",
          kf = [1.800000E+10, 0.0, 2385.0],
          kf0 = [6.020000E+14, 0.0, 3000.0],
          efficiencies = "C2H6:3.0  CH4:2.0  CO:1.5  CO2:3.5  H2:2.0  H2O:6.0  O2:6.0")

#  Reaction 24
falloff_reaction( "CO2 (+M) => CO + O (+M)",
          kf = [2.482000E+17, -1.3175, 131041.38000000002],
          kf0 = [8.301000E+21, -1.32, 131656.38],
          efficiencies = "C2H6:3.0  CH4:2.0  CO:1.5  CO2:3.5  H2:2.0  H2O:6.0  O2:6.0")

#  Reaction 25
reaction( "HCO + O => CO + OH",  [3.000000e+13, 0.0, 0.0])

#  Reaction 26
reaction( "CO + OH => HCO + O",  [4.678000e+11, 0.6126, 85758.25])

#  Reaction 27
reaction( "HCO + O => CO2 + H",  [3.000000e+13, 0.0, 0.0])

#  Reaction 28
reaction( "CO2 + H => HCO + O",  [2.613000e+18, -0.6685, 111909.31])

#  Reaction 29
reaction( "CH2O + O => HCO + OH",  [3.900000e+13, 0.0, 3540.0])

#  Reaction 30
reaction( "HCO + OH => CH2O + O",  [1.999000e+09, 0.7778, 15942.24])

#  Reaction 31
reaction( "CH2OH + O => CH2O + OH",  [1.000000e+13, 0.0, 0.0])

#  Reaction 32
reaction( "CH2O + OH => CH2OH + O",  [6.439000e+11, 0.509, 72745.1])

#  Reaction 33
reaction( "CH3O + O => CH2O + OH",  [1.000000e+13, 0.0, 0.0])

#  Reaction 34
reaction( "CH2O + OH => CH3O + O",  [2.699000e+09, 0.8539, 78571.64])

#  Reaction 35
reaction( "CH3OH + O => CH2OH + OH",  [3.880000e+05, 2.5, 3100.0])

#  Reaction 36
reaction( "CH2OH + OH => CH3OH + O",  [2.383000e+01, 3.2013, 6475.06])

#  Reaction 37
reaction( "CH3OH + O => CH3O + OH",  [1.300000e+05, 2.5, 5000.0])

#  Reaction 38
reaction( "CH3O + OH => CH3OH + O",  [1.905000e+03, 2.8565, 2548.52])

#  Reaction 39
reaction( "C2H2 + O => H + HCCO",  [1.350000e+07, 2.0, 1900.0])

#  Reaction 40
reaction( "H + HCCO => C2H2 + O",  [1.877000e+06, 2.1966, 20494.77])

#  Reaction 41
reaction( "C2H2 + O => CH2 + CO",  [6.940000e+06, 2.0, 1900.0])

#  Reaction 42
reaction( "CH2 + CO => C2H2 + O",  [4.478000e+00, 3.4873, 47098.95])

#  Reaction 43
reaction( "C2H3 + O => CH2CO + H",  [3.000000e+13, 0.0, 0.0])

#  Reaction 44
reaction( "CH2CO + H => C2H3 + O",  [1.280000e+16, -0.3197, 89890.81])

#  Reaction 45
reaction( "C2H4 + O => CH3 + HCO",  [1.250000e+07, 1.83, 220.0])

#  Reaction 46
reaction( "CH3 + HCO => C2H4 + O",  [7.490000e+00, 3.0716, 25010.39])

#  Reaction 47
reaction( "C2H5 + O => CH2O + CH3",  [2.240000e+13, 0.0, 0.0])

#  Reaction 48
reaction( "CH2O + CH3 => C2H5 + O",  [8.792000e+09, 0.9984, 77608.65])

#  Reaction 49
reaction( "C2H6 + O => C2H5 + OH",  [8.980000e+07, 1.92, 5690.0])

#  Reaction 50
reaction( "C2H5 + OH => C2H6 + O",  [6.712000e+02, 2.7763, 5726.77])

#  Reaction 51
reaction( "HCCO + O => 2 CO + H",  [1.000000e+14, 0.0, 0.0])

#  Reaction 52
reaction( "2 CO + H => HCCO + O",  [2.350000e+08, 1.6174, 101400.04])

#  Reaction 53
reaction( "CH2CO + O => HCCO + OH",  [1.000000e+13, 0.0, 8000.0])

#  Reaction 54
reaction( "HCCO + OH => CH2CO + O",  [4.280000e+08, 0.8525, 2788.13])

#  Reaction 55
reaction( "CH2CO + O => CH2 + CO2",  [1.750000e+12, 0.0, 1350.0])

#  Reaction 56
reaction( "CH2 + CO2 => CH2CO + O",  [1.942000e+09, 0.8621, 48893.37])

#  Reaction 57
reaction( "CO + O2 => CO2 + O",  [2.500000e+12, 0.0, 47800.0])

#  Reaction 58
reaction( "CO2 + O => CO + O2",  [3.668000e+16, -0.878, 56696.43])

#  Reaction 59
reaction( "CH2O + O2 => HCO + HO2",  [1.000000e+14, 0.0, 40000.0])

#  Reaction 60
reaction( "HCO + HO2 => CH2O + O2",  [1.419000e+11, 0.3303, -5.67])

#  Reaction 61
three_body_reaction( "H + O2 + M => HO2 + M",  [2.800000e+18, -0.86, 0.0],
          efficiencies = "C2H6:1.5  CO:0.75  CO2:1.5  H2O:0.0  N2:0.0  O2:0.0")

#  Reaction 62
three_body_reaction( "HO2 + M => H + O2 + M",  [1.914000e+20, -1.3437, 50097.41],
          efficiencies = "C2H6:1.5  CO:0.75  CO2:1.5  H2O:0.0  N2:0.0  O2:0.0")

#  Reaction 63
reaction( "H + 2 O2 => HO2 + O2",  [2.080000e+19, -1.24, 0.0])

#  Reaction 64
reaction( "HO2 + O2 => H + 2 O2",  [1.422000e+21, -1.7237, 50097.41])

#  Reaction 65
reaction( "H + H2O + O2 => H2O + HO2",  [1.126000e+19, -0.76, 0.0])

#  Reaction 66
reaction( "H2O + HO2 => H + H2O + O2",  [7.696000e+20, -1.2437, 50097.41])

#  Reaction 67
reaction( "H + N2 + O2 => HO2 + N2",  [2.600000e+19, -1.24, 0.0])

#  Reaction 68
reaction( "HO2 + N2 => H + N2 + O2",  [1.777000e+21, -1.7237, 50097.41])

#  Reaction 69
reaction( "H + O2 => O + OH",  [2.650000e+16, -0.6707, 17041.0])

#  Reaction 70
reaction( "O + OH => H + O2",  [6.960000e+13, -0.2675, -213.63])

#  Reaction 71
three_body_reaction( "2 H + M => H2 + M",  [1.000000e+18, -1.0, 0.0],
          efficiencies = "C2H6:3.0  CH4:2.0  CO2:0.0  H2:0.0  H2O:0.0")

#  Reaction 72
three_body_reaction( "H2 + M => 2 H + M",  [3.289000e+18, -0.9726, 104322.15],
          efficiencies = "C2H6:3.0  CH4:2.0  CO2:0.0  H2:0.0  H2O:0.0")

#  Reaction 73
reaction( "2 H + H2 => 2 H2",  [9.000000e+16, -0.6, 0.0])

#  Reaction 74
reaction( "2 H2 => 2 H + H2",  [2.960000e+17, -0.5726, 104322.15])

#  Reaction 75
reaction( "2 H + H2O => H2 + H2O",  [6.000000e+19, -1.25, 0.0])

#  Reaction 76
reaction( "H2 + H2O => 2 H + H2O",  [1.973000e+20, -1.2226, 104322.15])

#  Reaction 77
reaction( "CO2 + 2 H => CO2 + H2",  [5.500000e+20, -2.0, 0.0])

#  Reaction 78
reaction( "CO2 + H2 => CO2 + 2 H",  [1.809000e+21, -1.9726, 104322.15])

#  Reaction 79
three_body_reaction( "H + OH + M => H2O + M",  [2.200000e+22, -2.0, 0.0],
          efficiencies = "C2H6:3.0  CH4:2.0  H2:0.73  H2O:3.65")

#  Reaction 80